data/models/EPRI_Ckt7-G/Transformer.DSS
New "Transformer.sub1" phases=3 windings=2 buses=[sourcebus, ckt7.1.2.3.0, ] conns=[delta, wye, ] kVs=[115, 12.47, ] kVAs=[41700, 41700, ] Xhl=0.635 buses=[sourcebus, ckt7.1.2.3.0, ] conns=[delta, wye, ] kVs=[115, 12.47, ] kVAs=[41700, 41700, ] taps=[1, 1, ] wdg=1 %R=0.0056 wdg=2 %R=0.0008
New "Transformer.sub2" phases=3 windings=2 buses=[sourcebus, ckt7.1.2.3.0, ] conns=[delta, wye, ] kVs=[115, 12.47, ] kVAs=[41700, 41700, ] Xhl=0.635 buses=[sourcebus, ckt7.1.2.3.0, ] conns=[delta, wye, ] kVs=[115, 12.47, ] kVAs=[41700, 41700, ] taps=[1, 1, ] wdg=1 %R=0.0056 wdg=2 %R=0.0008
New "Transformer.sub3" phases=3 windings=2 buses=[sourcebus, ckt7.1.2.3.0, ] conns=[delta, wye, ] kVs=[115, 12.47, ] kVAs=[41700, 41700, ] Xhl=0.635 buses=[sourcebus, ckt7.1.2.3.0, ] conns=[delta, wye, ] kVs=[115, 12.47, ] kVAs=[41700, 41700, ] taps=[1, 1, ] wdg=1 %R=0.0056 wdg=2 %R=0.0008
